/*--------------------------------*- C++ -*----------------------------------*\
| =========                 |                                                 |
| \\      /  F ield         | OpenFOAM: The Open Source CFD Toolbox           |
|  \\    /   O peration     | Version:  v2012                                 |
|   \\  /    A nd           | Website:  www.openfoam.com                      |
|    \\/     M anipulation  |                                                 |
\*---------------------------------------------------------------------------*/
FoamFile
{
    version     2.0;
    format      ascii;
    class       dictionary;
    location    "1901/uniform/functionObjects";
    object      functionObjectProperties;
}
// * * * * * * * * * * * * * * * * * * * * * * * * * * * * * * * * * * * * * //

results
{
    forces
    {
        vector
        {
            normalForce     ( 0 -64.4905 0 );
            tangentialForce ( 1.32432 0.00365197 0 );
            porousForce     ( 0 0 0 );
            normalMoment    ( 3.22453 0 -29.2899 );
            tangentialMoment ( -0.000182599 0.06621589999999999 1.39863e-07 );
            porousMoment    ( 0 0 0 );
        }
    }
}


// ************************************************************************* //
