/*--------------------------------*- C++ -*----------------------------------*\
| =========                 |                                                 |
| \\      /  F ield         | OpenFOAM: The Open Source CFD Toolbox           |
|  \\    /   O peration     | Version:  v2012                                 |
|   \\  /    A nd           | Website:  www.openfoam.com                      |
|    \\/     M anipulation  |                                                 |
\*---------------------------------------------------------------------------*/
FoamFile
{
    version     2.0;
    format      ascii;
    class       polyBoundaryMesh;
    location    "0/polyMesh";
    object      boundary;
}
// * * * * * * * * * * * * * * * * * * * * * * * * * * * * * * * * * * * * * //

6
(
    base
    {
        type            wall;
        inGroups        1(wall);
        nFaces          212;
        startFace       44423;
    }
    frontAndBack
    {
        type            empty;
        inGroups        1(empty);
        nFaces          44748;
        startFace       44635;
    }
    inlet
    {
        type            patch;
        nFaces          99;
        startFace       89383;
    }
    outlet
    {
        type            patch;
        nFaces          99;
        startFace       89482;
    }
    slip
    {
        type            patch;
        nFaces          28;
        startFace       89581;
    }
    top
    {
        type            patch;
        nFaces          212;
        startFace       89609;
    }
)

// ************************************************************************* //
