/*--------------------------------*- C++ -*----------------------------------*\
| =========                 |                                                 |
| \\      /  F ield         | OpenFOAM: The Open Source CFD Toolbox           |
|  \\    /   O peration     | Version:  v2012                                 |
|   \\  /    A nd           | Website:  www.openfoam.com                      |
|    \\/     M anipulation  |                                                 |
\*---------------------------------------------------------------------------*/
FoamFile
{
    version     2.0;
    format      ascii;
    class       dictionary;
    location    "600/uniform";
    object      pseudotimeState;
}
// * * * * * * * * * * * * * * * * * * * * * * * * * * * * * * * * * * * * * //

initResiduals   3.89857e-05 ( 0.000552796 2.82596e-06 4.39756e-19 ) 7.84384e-05;

firstResiduals  3.89857e-05 ( 0.000552796 2.82596e-06 4.39756e-19 ) 7.84384e-05;


// ************************************************************************* //
