/*--------------------------------*- C++ -*----------------------------------*\
| =========                 |                                                 |
| \\      /  F ield         | OpenFOAM: The Open Source CFD Toolbox           |
|  \\    /   O peration     | Version:  v2012                                 |
|   \\  /    A nd           | Website:  www.openfoam.com                      |
|    \\/     M anipulation  |                                                 |
\*---------------------------------------------------------------------------*/
FoamFile
{
    version     2.0;
    format      ascii;
    class       dictionary;
    location    "2000/uniform/functionObjects";
    object      functionObjectProperties;
}
// * * * * * * * * * * * * * * * * * * * * * * * * * * * * * * * * * * * * * //

results
{
    forces
    {
        vector
        {
            normalForce     ( 0 -64.4635 0 );
            tangentialForce ( 1.28093 0.00369391 0 );
            porousForce     ( 0 0 0 );
            normalMoment    ( 3.22318 0 -29.2664 );
            tangentialMoment ( -0.000184695 0.0640466 1.34925e-05 );
            porousMoment    ( 0 0 0 );
        }
    }
}


// ************************************************************************* //
