/*--------------------------------*- C++ -*----------------------------------*\
| =========                 |                                                 |
| \\      /  F ield         | OpenFOAM: The Open Source CFD Toolbox           |
|  \\    /   O peration     | Version:  v2012                                 |
|   \\  /    A nd           | Website:  www.openfoam.com                      |
|    \\/     M anipulation  |                                                 |
\*---------------------------------------------------------------------------*/
FoamFile
{
    version     2.0;
    format      ascii;
    class       polyBoundaryMesh;
    location    "1/polyMesh";
    object      boundary;
}
// * * * * * * * * * * * * * * * * * * * * * * * * * * * * * * * * * * * * * //

6
(
    freestream
    {
        type            patch;
        nFaces          80;
        startFace       15820;
    }
    inlet
    {
        type            patch;
        nFaces          100;
        startFace       15900;
    }
    outlet
    {
        type            patch;
        nFaces          100;
        startFace       16000;
    }
    inviscidWall
    {
        type            wall;
        inGroups        1(wall);
        nFaces          20;
        startFace       16100;
    }
    viscousWall
    {
        type            wall;
        inGroups        1(wall);
        nFaces          60;
        startFace       16120;
    }
    frontAndBack
    {
        type            empty;
        inGroups        1(empty);
        nFaces          16000;
        startFace       16180;
    }
)

// ************************************************************************* //
