/*--------------------------------*- C++ -*----------------------------------*\
| =========                 |                                                 |
| \\      /  F ield         | OpenFOAM: The Open Source CFD Toolbox           |
|  \\    /   O peration     | Version:  v2012                                 |
|   \\  /    A nd           | Website:  www.openfoam.com                      |
|    \\/     M anipulation  |                                                 |
\*---------------------------------------------------------------------------*/
FoamFile
{
    version     2.0;
    format      ascii;
    class       dictionary;
    location    "2000/uniform";
    object      pseudotimeState;
}
// * * * * * * * * * * * * * * * * * * * * * * * * * * * * * * * * * * * * * //

initResiduals   6.59974e-10 ( 0.999873 0.000253166 0 ) 6.68073e-09;

firstResiduals  6.59974e-10 ( 0.999873 0.000253166 0 ) 6.68073e-09;


// ************************************************************************* //
